data_image0
_chemical_formula_structural       N2C2H12Pb2I6
_chemical_formula_sum              "N2 C2 H12 Pb2 I6"
_cell_length_a       13.066739950848183
_cell_length_b       6.447909540591107
_cell_length_c       6.413901842517733
_cell_angle_alpha    90.07113551631299
_cell_angle_beta     89.53589382117042
_cell_angle_gamma    89.78803670940194

_space_group_name_H-M_alt    "P 1"
_space_group_IT_number       1

loop_
  _space_group_symop_operation_xyz
  'x, y, z'

loop_
  _atom_site_type_symbol
  _atom_site_label
  _atom_site_symmetry_multiplicity
  _atom_site_fract_x
  _atom_site_fract_y
  _atom_site_fract_z
  _atom_site_occupancy
  N   N1        1.0  0.41546703537681856  0.427416653802161  0.577406109529728  1.0000
  N   N2        1.0  0.8789667083245883  0.24013932567339225  0.649514945480739  1.0000
  C   C1        1.0  0.31756711793846165  0.3085496068057215  0.5377486376248347  1.0000
  C   C2        1.0  0.8103547782785443  0.3480680549171177  0.49845958663493795  1.0000
  H   H1        1.0  0.39719958159880175  0.569014523062509  0.6436870117825956  1.0000
  H   H2        1.0  0.4581787303026594  0.4578494371091457  0.4383345283109038  1.0000
  H   H3        1.0  0.4582258350324719  0.351190334033146  0.6960042332894495  1.0000
  H   H4        1.0  0.2970783361726095  0.3453593275954766  0.3799447138874776  1.0000
  H   H5        1.0  0.33261436287729934  0.14386784923275434  0.5643477558651482  1.0000
  H   H6        1.0  0.2586301623169967  0.3609036718130434  0.6514832341493222  1.0000
  H   H7        1.0  0.9345127142134654  0.14047383564734398  0.5790125397448318  1.0000
  H   H8        1.0  0.8364587732412783  0.14258000347813554  0.7477463344293881  1.0000
  H   H9        1.0  0.9137719977148143  0.3512998156949266  0.744333026289629  1.0000
  H   H10       1.0  0.7741829189275211  0.23763766149468404  0.39215151536543863  1.0000
  H   H11       1.0  0.7551929338133306  0.43789710184642383  0.5924532640215644  1.0000
  H   H12       1.0  0.8582958222496566  0.4578847272999746  0.4144223729198017  1.0000
  Pb  Pb1       1.0  0.06634365354316886  0.8737467160630854  0.02568417778615599  1.0000
  Pb  Pb2       1.0  0.5643930111251986  0.8832547141744858  0.06576860561103609  1.0000
  I   I1        1.0  0.07860418881812913  0.8898957535969937  0.5087477342712794  1.0000
  I   I2        1.0  0.3104344327042981  0.8577513139645994  0.014260897462014565  1.0000
  I   I3        1.0  0.059708187344487955  0.3848030918146536  0.02705354459762949  1.0000
  I   I4        1.0  0.5807376518631311  0.8902733586388623  0.5525265593988309  1.0000
  I   I5        1.0  0.8087378794685559  0.8141652199740181  0.03152707188146364  1.0000
  I   I6        1.0  0.5492912125966564  0.40881396316311397  0.1150340124617497  1.0000
